case75.py
from numpy import array, asarray, ceil
from models import LoadSampler

def case75():

    ppc = {"version": '2'}
    ## system MVA base
    ppc["baseMVA"] = 1.0
    ## Bus data
    ppc["bus"] = array([
        [1000, 3, 0.0, 0.0, 0, 0, 1, 1, 0, 33, 1, 1.1, 0.9],
        [1100, 1, 0.0, 0.0, 0, 0, 1, 1, 0, 11, 1, 1.05, 0.95],
        [1101, 1, 0.0, 0.0, 0, 0, 1, 1, 0, 11, 1, 1.05, 0.95],
        [1102, 1, 0.0, 0.0, 0, 0, 1, 1, 0, 11, 1, 1.05, 0.95],
        [1103, 1, 0.0, 0.0, 0, 0, 1, 1, 0, 11, 1, 1.05, 0.95],
        [1104, 1, 0.0, 0.0, 0, 0, 1, 1, 0, 11, 1, 1.05, 0.95],
        [1105, 1, 0.0, 0.0, 0, 0, 1, 1, 0, 11, 1, 1.05, 0.95],
        [1106, 1, 0.0, 0.0, 0, 0, 1, 1, 0, 11, 1, 1.05, 0.95],
        [1107, 1, 0.0, 0.0, 0, 0, 1, 1, 0, 11, 1, 1.05, 0.95],
        [1108, 1, 0.0, 0.0, 0, 0, 1, 1, 0, 11, 1, 1.05, 0.95],
        [1109, 1, 0.0, 0.0, 0, 0, 1, 1, 0, 11, 1, 1.05, 0.95],
        [1110, 1, 0.0, 0.0, 0, 0, 1, 1, 0, 11, 1, 1.05, 0.95],
        [1111, 1, 0.0, 0.0, 0, 0, 1, 1, 0, 11, 1, 1.05, 0.95],
        [1112, 1, 0.0, 0.0, 0, 0, 1, 1, 0, 11, 1, 1.05, 0.95],
        [1113, 1, 0.0, 0.0, 0, 0, 1, 1, 0, 11, 1, 1.05, 0.95],
        [1114, 1, 0.0, 0.0, 0, 0, 1, 1, 0, 11, 1, 1.05, 0.95],
        [1115, 1, 0.0, 0.0, 0, 0, 1, 1, 0, 11, 1, 1.05, 0.95],
        [1116, 1, 0.0, 0.0, 0, 0, 1, 1, 0, 11, 1, 1.05, 0.95],
        [1117, 1, 0.0, 0.0, 0, 0, 1, 1, 0, 11, 1, 1.05, 0.95],
        [1118, 1, 0.0, 0.0, 0, 0, 1, 1, 0, 11, 1, 1.05, 0.95],
        [1119, 1, 0.0, 0.0, 0, 0, 1, 1, 0, 11, 1, 1.05, 0.95],
        [1120, 1, 0.0, 0.0, 0, 0, 1, 1, 0, 11, 1, 1.05, 0.95],
        [1121, 1, 0.0, 0.0, 0, 0, 1, 1, 0, 11, 1, 1.05, 0.95],
        [1122, 1, 0.0, 0.0, 0, 0, 1, 1, 0, 11, 1, 1.05, 0.95],
        [1123, 1, 0.0, 0.0, 0, 0, 1, 1, 0, 11, 1, 1.05, 0.95],
        [1124, 1, 0.0, 0.0, 0, 0, 1, 1, 0, 11, 1, 1.05, 0.95],
        [1125, 1, 0.0, 0.0, 0, 0, 1, 1, 0, 11, 1, 1.05, 0.95],
        [1126, 1, 0.0, 0.0, 0, 0, 1, 1, 0, 11, 1, 1.05, 0.95],
        [1127, 1, 0.0, 0.0, 0, 0, 1, 1, 0, 11, 1, 1.05, 0.95],
        [1128, 1, 0.0, 0.0, 0, 0, 1, 1, 0, 11, 1, 1.05, 0.95],
        [1129, 1, 0.0, 0.0, 0, 0, 1, 1, 0, 11, 1, 1.05, 0.95],
        [1130, 1, 0.0, 0.0, 0, 0, 1, 1, 0, 11, 1, 1.05, 0.95],
        [1131, 1, 0.0, 0.0, 0, 0, 1, 1, 0, 11, 1, 1.05, 0.95],
        [1132, 1, 0.0, 0.0, 0, 0, 1, 1, 0, 11, 1, 1.05, 0.95],
        [1133, 1, 0.0, 0.0, 0, 0, 1, 1, 0, 11, 1, 1.05, 0.95],
        [1134, 1, 0.0, 0.0, 0, 0, 1, 1, 0, 11, 1, 1.05, 0.95],
        [1135, 1, 0.0, 0.0, 0, 0, 1, 1, 0, 11, 1, 1.05, 0.95],
        [1136, 1, 0.0, 0.0, 0, 0, 1, 1, 0, 11, 1, 1.05, 0.95],
        [1137, 1, 0.0, 0.0, 0, 0, 1, 1, 0, 11, 1, 1.05, 0.95],
        [1138, 1, 0.0, 0.0, 0, 0, 1, 1, 0, 11, 1, 1.05, 0.95],
        [1139, 1, 0.0, 0.0, 0, 0, 1, 1, 0, 11, 1, 1.05, 0.95],
        [1140, 1, 0.0, 0.0, 0, 0, 1, 1, 0, 11, 1, 1.05, 0.95],
        [1141, 1, 0.0, 0.0, 0, 0, 1, 1, 0, 11, 1, 1.05, 0.95],
        [1142, 1, 0.0, 0.0, 0, 0, 1, 1, 0, 11, 1, 1.05, 0.95],
        [1143, 1, 0.0, 0.0, 0, 0, 1, 1, 0, 11, 1, 1.05, 0.95],
        [1144, 1, 0.0, 0.0, 0, 0, 1, 1, 0, 11, 1, 1.05, 0.95],
        [1145, 1, 0.0, 0.0, 0, 0, 1, 1, 0, 11, 1, 1.05, 0.95],
        [1146, 1, 0.0, 0.0, 0, 0, 1, 1, 0, 11, 1, 1.05, 0.95],
        [1147, 1, 0.0, 0.0, 0, 0, 1, 1, 0, 11, 1, 1.05, 0.95],
        [1148, 1, 0.0, 0.0, 0, 0, 1, 1, 0, 11, 1, 1.05, 0.95],
        [1149, 1, 0.0, 0.0, 0, 0, 1, 1, 0, 11, 1, 1.05, 0.95],
        [1150, 1, 0.0, 0.0, 0, 0, 1, 1, 0, 11, 1, 1.05, 0.95],
        [1151, 1, 0.0, 0.0, 0, 0, 1, 1, 0, 11, 1, 1.05, 0.95],
        [1152, 1, 0.0, 0.0, 0, 0, 1, 1, 0, 11, 1, 1.05, 0.95],
        [1153, 1, 0.0, 0.0, 0, 0, 1, 1, 0, 11, 1, 1.05, 0.95],
        [1154, 1, 0.0, 0.0, 0, 0, 1, 1, 0, 11, 1, 1.05, 0.95],
        [1155, 1, 0.0, 0.0, 0, 0, 1, 1, 0, 11, 1, 1.05, 0.95],
        [1156, 1, 0.0, 0.0, 0, 0, 1, 1, 0, 11, 1, 1.05, 0.95],
        [1157, 1, 0.0, 0.0, 0, 0, 1, 1, 0, 11, 1, 1.05, 0.95],
        [1158, 1, 0.0, 0.0, 0, 0, 1, 1, 0, 11, 1, 1.05, 0.95],
        [1159, 1, 0.0, 0.0, 0, 0, 1, 1, 0, 11, 1, 1.05, 0.95],
        [1160, 1, 0.0, 0.0, 0, 0, 1, 1, 0, 11, 1, 1.05, 0.95],
        [1161, 1, 0.0, 0.0, 0, 0, 1, 1, 0, 11, 1, 1.05, 0.95],
        [1162, 1, 0.0, 0.0, 0, 0, 1, 1, 0, 11, 1, 1.05, 0.95],
        [1163, 1, 0.0, 0.0, 0, 0, 1, 1, 0, 11, 1, 1.05, 0.95],
        [1164, 1, 0.0, 0.0, 0, 0, 1, 1, 0, 11, 1, 1.05, 0.95],
        [1165, 1, 0.0, 0.0, 0, 0, 1, 1, 0, 11, 1, 1.05, 0.95],
        [1166, 1, 0.0, 0.0, 0, 0, 1, 1, 0, 11, 1, 1.05, 0.95],
        [1167, 1, 0.0, 0.0, 0, 0, 1, 1, 0, 11, 1, 1.05, 0.95],
        [1168, 1, 0.0, 0.0, 0, 0, 1, 1, 0, 11, 1, 1.05, 0.95],
        [1169, 1, 0.0, 0.0, 0, 0, 1, 1, 0, 11, 1, 1.05, 0.95],
        [1170, 1, 0.0, 0.0, 0, 0, 1, 1, 0, 11, 1, 1.05, 0.95],
        [1171, 1, 0.0, 0.0, 0, 0, 1, 1, 0, 11, 1, 1.05, 0.95],
        [1172, 1, 0.0, 0.0, 0, 0, 1, 1, 0, 11, 1, 1.05, 0.95],
        [1173, 1, 0.0, 0.0, 0, 0, 1, 1, 0, 11, 1, 1.05, 0.95],
        [1174, 1, 0.0, 0.0, 0, 0, 1, 1, 0, 11, 1, 1.05, 0.95],
        [1175, 1, 0.0, 0.0, 0, 0, 1, 1, 0, 11, 1, 1.05, 0.95]
    ])


    ## Gen data
    ppc["gen"] = array([
        [1000, 0.0, 0.0, 100.0, -100.0, 1.02, 100.0, 1, 100.0, -100.0, 0.0, 0.0, 0.0, 0.0, 0.0, 0.0, 0.0, 0.0, 0.0, 0.0, 0.0],
        [1101, -1.0, -0.20306, 0.0, 0.0, 0.0, 100.0, 1, 0.0, 0.0, 0.0, 0.0, 0.0, 0.0, 0.0, 0.0, 0.0, 0.0, 0.0, 0.0, 0.0],
        [1103, -1.0, -0.20306, 0.0, 0.0, 0.0, 100.0, 1, 0.0, 0.0, 0.0, 0.0, 0.0, 0.0, 0.0, 0.0, 0.0, 0.0, 0.0, 0.0, 0.0],
        [1104, -1.0, -0.20306, 0.0, 0.0, 0.0, 100.0, 1, 0.0, 0.0, 0.0, 0.0, 0.0, 0.0, 0.0, 0.0, 0.0, 0.0, 0.0, 0.0, 0.0],
        [1106, -1.0, -0.20306, 0.0, 0.0, 0.0, 100.0, 1, 0.0, 0.0, 0.0, 0.0, 0.0, 0.0, 0.0, 0.0, 0.0, 0.0, 0.0, 0.0, 0.0],
        [1107, -1.0, -0.20306, 0.0, 0.0, 0.0, 100.0, 1, 0.0, 0.0, 0.0, 0.0, 0.0, 0.0, 0.0, 0.0, 0.0, 0.0, 0.0, 0.0, 0.0],
        [1109, -1.0, -0.20306, 0.0, 0.0, 0.0, 100.0, 1, 0.0, 0.0, 0.0, 0.0, 0.0, 0.0, 0.0, 0.0, 0.0, 0.0, 0.0, 0.0, 0.0],
        [1110, -1.0, -0.20306, 0.0, 0.0, 0.0, 100.0, 1, 0.0, 0.0, 0.0, 0.0, 0.0, 0.0, 0.0, 0.0, 0.0, 0.0, 0.0, 0.0, 0.0],
        [1111, -1.0, -0.20306, 0.0, 0.0, 0.0, 100.0, 1, 0.0, 0.0, 0.0, 0.0, 0.0, 0.0, 0.0, 0.0, 0.0, 0.0, 0.0, 0.0, 0.0],
        [1113, -1.0, -0.20306, 0.0, 0.0, 0.0, 100.0, 1, 0.0, 0.0, 0.0, 0.0, 0.0, 0.0, 0.0, 0.0, 0.0, 0.0, 0.0, 0.0, 0.0],
        [1114, -1.0, -0.20306, 0.0, 0.0, 0.0, 100.0, 1, 0.0, 0.0, 0.0, 0.0, 0.0, 0.0, 0.0, 0.0, 0.0, 0.0, 0.0, 0.0, 0.0],
        [1115, -1.0, -0.20306, 0.0, 0.0, 0.0, 100.0, 1, 0.0, 0.0, 0.0, 0.0, 0.0, 0.0, 0.0, 0.0, 0.0, 0.0, 0.0, 0.0, 0.0],
        [1117, -1.0, -0.20306, 0.0, 0.0, 0.0, 100.0, 1, 0.0, 0.0, 0.0, 0.0, 0.0, 0.0, 0.0, 0.0, 0.0, 0.0, 0.0, 0.0, 0.0],
        [1120, -1.0, -0.20306, 0.0, 0.0, 0.0, 100.0, 1, 0.0, 0.0, 0.0, 0.0, 0.0, 0.0, 0.0, 0.0, 0.0, 0.0, 0.0, 0.0, 0.0],
        [1122, -1.0, -0.20306, 0.0, 0.0, 0.0, 100.0, 1, 0.0, 0.0, 0.0, 0.0, 0.0, 0.0, 0.0, 0.0, 0.0, 0.0, 0.0, 0.0, 0.0],
        [1123, -1.0, -0.20306, 0.0, 0.0, 0.0, 100.0, 1, 0.0, 0.0, 0.0, 0.0, 0.0, 0.0, 0.0, 0.0, 0.0, 0.0, 0.0, 0.0, 0.0],
        [1124, -1.0, -0.20306, 0.0, 0.0, 0.0, 100.0, 1, 0.0, 0.0, 0.0, 0.0, 0.0, 0.0, 0.0, 0.0, 0.0, 0.0, 0.0, 0.0, 0.0],
        [1125, -1.0, -0.20306, 0.0, 0.0, 0.0, 100.0, 1, 0.0, 0.0, 0.0, 0.0, 0.0, 0.0, 0.0, 0.0, 0.0, 0.0, 0.0, 0.0, 0.0],
        [1126, -1.0, -0.20306, 0.0, 0.0, 0.0, 100.0, 1, 0.0, 0.0, 0.0, 0.0, 0.0, 0.0, 0.0, 0.0, 0.0, 0.0, 0.0, 0.0, 0.0],
        [1128, -1.0, -0.20306, 0.0, 0.0, 0.0, 100.0, 1, 0.0, 0.0, 0.0, 0.0, 0.0, 0.0, 0.0, 0.0, 0.0, 0.0, 0.0, 0.0, 0.0],
        [1131, -1.0, -0.20306, 0.0, 0.0, 0.0, 100.0, 1, 0.0, 0.0, 0.0, 0.0, 0.0, 0.0, 0.0, 0.0, 0.0, 0.0, 0.0, 0.0, 0.0],
        [1133, -1.0, -0.20306, 0.0, 0.0, 0.0, 100.0, 1, 0.0, 0.0, 0.0, 0.0, 0.0, 0.0, 0.0, 0.0, 0.0, 0.0, 0.0, 0.0, 0.0],
        [1134, -1.0, -0.20306, 0.0, 0.0, 0.0, 100.0, 1, 0.0, 0.0, 0.0, 0.0, 0.0, 0.0, 0.0, 0.0, 0.0, 0.0, 0.0, 0.0, 0.0],
        [1135, -1.0, -0.20306, 0.0, 0.0, 0.0, 100.0, 1, 0.0, 0.0, 0.0, 0.0, 0.0, 0.0, 0.0, 0.0, 0.0, 0.0, 0.0, 0.0, 0.0],
        [1136, -1.0, -0.20306, 0.0, 0.0, 0.0, 100.0, 1, 0.0, 0.0, 0.0, 0.0, 0.0, 0.0, 0.0, 0.0, 0.0, 0.0, 0.0, 0.0, 0.0],
        [1137, -1.0, -0.20306, 0.0, 0.0, 0.0, 100.0, 1, 0.0, 0.0, 0.0, 0.0, 0.0, 0.0, 0.0, 0.0, 0.0, 0.0, 0.0, 0.0, 0.0],
        [1139, -1.0, -0.20306, 0.0, 0.0, 0.0, 100.0, 1, 0.0, 0.0, 0.0, 0.0, 0.0, 0.0, 0.0, 0.0, 0.0, 0.0, 0.0, 0.0, 0.0],
        [1142, -1.0, -0.20306, 0.0, 0.0, 0.0, 100.0, 1, 0.0, 0.0, 0.0, 0.0, 0.0, 0.0, 0.0, 0.0, 0.0, 0.0, 0.0, 0.0, 0.0],
        [1144, -1.0, -0.20306, 0.0, 0.0, 0.0, 100.0, 1, 0.0, 0.0, 0.0, 0.0, 0.0, 0.0, 0.0, 0.0, 0.0, 0.0, 0.0, 0.0, 0.0],
        [1146, -1.0, -0.20306, 0.0, 0.0, 0.0, 100.0, 1, 0.0, 0.0, 0.0, 0.0, 0.0, 0.0, 0.0, 0.0, 0.0, 0.0, 0.0, 0.0, 0.0],
        [1147, -1.0, -0.20306, 0.0, 0.0, 0.0, 100.0, 1, 0.0, 0.0, 0.0, 0.0, 0.0, 0.0, 0.0, 0.0, 0.0, 0.0, 0.0, 0.0, 0.0],
        [1148, -1.0, -0.20306, 0.0, 0.0, 0.0, 100.0, 1, 0.0, 0.0, 0.0, 0.0, 0.0, 0.0, 0.0, 0.0, 0.0, 0.0, 0.0, 0.0, 0.0],
        [1149, -1.0, -0.20306, 0.0, 0.0, 0.0, 100.0, 1, 0.0, 0.0, 0.0, 0.0, 0.0, 0.0, 0.0, 0.0, 0.0, 0.0, 0.0, 0.0, 0.0],
        [1150, -1.0, -0.20306, 0.0, 0.0, 0.0, 100.0, 1, 0.0, 0.0, 0.0, 0.0, 0.0, 0.0, 0.0, 0.0, 0.0, 0.0, 0.0, 0.0, 0.0],
        [1151, -1.0, -0.20306, 0.0, 0.0, 0.0, 100.0, 1, 0.0, 0.0, 0.0, 0.0, 0.0, 0.0, 0.0, 0.0, 0.0, 0.0, 0.0, 0.0, 0.0],
        [1153, -1.0, -0.20306, 0.0, 0.0, 0.0, 100.0, 1, 0.0, 0.0, 0.0, 0.0, 0.0, 0.0, 0.0, 0.0, 0.0, 0.0, 0.0, 0.0, 0.0],
        [1154, -1.0, -0.20306, 0.0, 0.0, 0.0, 100.0, 1, 0.0, 0.0, 0.0, 0.0, 0.0, 0.0, 0.0, 0.0, 0.0, 0.0, 0.0, 0.0, 0.0],
        [1156, -1.0, -0.20306, 0.0, 0.0, 0.0, 100.0, 1, 0.0, 0.0, 0.0, 0.0, 0.0, 0.0, 0.0, 0.0, 0.0, 0.0, 0.0, 0.0, 0.0],
        [1157, -1.0, -0.20306, 0.0, 0.0, 0.0, 100.0, 1, 0.0, 0.0, 0.0, 0.0, 0.0, 0.0, 0.0, 0.0, 0.0, 0.0, 0.0, 0.0, 0.0],
        [1158, -1.0, -0.20306, 0.0, 0.0, 0.0, 100.0, 1, 0.0, 0.0, 0.0, 0.0, 0.0, 0.0, 0.0, 0.0, 0.0, 0.0, 0.0, 0.0, 0.0],
        [1160, -1.0, -0.20306, 0.0, 0.0, 0.0, 100.0, 1, 0.0, 0.0, 0.0, 0.0, 0.0, 0.0, 0.0, 0.0, 0.0, 0.0, 0.0, 0.0, 0.0],
        [1161, -1.0, -0.20306, 0.0, 0.0, 0.0, 100.0, 1, 0.0, 0.0, 0.0, 0.0, 0.0, 0.0, 0.0, 0.0, 0.0, 0.0, 0.0, 0.0, 0.0],
        [1163, -1.0, -0.20306, 0.0, 0.0, 0.0, 100.0, 1, 0.0, 0.0, 0.0, 0.0, 0.0, 0.0, 0.0, 0.0, 0.0, 0.0, 0.0, 0.0, 0.0],
        [1164, -1.0, -0.20306, 0.0, 0.0, 0.0, 100.0, 1, 0.0, 0.0, 0.0, 0.0, 0.0, 0.0, 0.0, 0.0, 0.0, 0.0, 0.0, 0.0, 0.0],
        [1165, -1.0, -0.20306, 0.0, 0.0, 0.0, 100.0, 1, 0.0, 0.0, 0.0, 0.0, 0.0, 0.0, 0.0, 0.0, 0.0, 0.0, 0.0, 0.0, 0.0],
        [1167, -1.0, -0.20306, 0.0, 0.0, 0.0, 100.0, 1, 0.0, 0.0, 0.0, 0.0, 0.0, 0.0, 0.0, 0.0, 0.0, 0.0, 0.0, 0.0, 0.0],
        [1168, -1.0, -0.20306, 0.0, 0.0, 0.0, 100.0, 1, 0.0, 0.0, 0.0, 0.0, 0.0, 0.0, 0.0, 0.0, 0.0, 0.0, 0.0, 0.0, 0.0],
        [1169, -1.0, -0.20306, 0.0, 0.0, 0.0, 100.0, 1, 0.0, 0.0, 0.0, 0.0, 0.0, 0.0, 0.0, 0.0, 0.0, 0.0, 0.0, 0.0, 0.0],
        [1170, -1.0, -0.20306, 0.0, 0.0, 0.0, 100.0, 1, 0.0, 0.0, 0.0, 0.0, 0.0, 0.0, 0.0, 0.0, 0.0, 0.0, 0.0, 0.0, 0.0],
        [1171, -1.0, -0.20306, 0.0, 0.0, 0.0, 100.0, 1, 0.0, 0.0, 0.0, 0.0, 0.0, 0.0, 0.0, 0.0, 0.0, 0.0, 0.0, 0.0, 0.0],
        [1172, -1.0, -0.20306, 0.0, 0.0, 0.0, 100.0, 1, 0.0, 0.0, 0.0, 0.0, 0.0, 0.0, 0.0, 0.0, 0.0, 0.0, 0.0, 0.0, 0.0],
        [1173, -1.0, -0.20306, 0.0, 0.0, 0.0, 100.0, 1, 0.0, 0.0, 0.0, 0.0, 0.0, 0.0, 0.0, 0.0, 0.0, 0.0, 0.0, 0.0, 0.0],
        [1174, -1.0, -0.20306, 0.0, 0.0, 0.0, 100.0, 1, 0.0, 0.0, 0.0, 0.0, 0.0, 0.0, 0.0, 0.0, 0.0, 0.0, 0.0, 0.0, 0.0],
        [1175, -1.0, -0.20306, 0.0, 0.0, 0.0, 100.0, 1, 0.0, 0.0, 0.0, 0.0, 0.0, 0.0, 0.0, 0.0, 0.0, 0.0, 0.0, 0.0, 0.0],
        [1101, 1.0, 0.20306, 0.0, 0.0, 0.0, 100.0, 1, 0.23911875, 0.0, 0.0, 0.0, 0.0, 0.0, 0.0, 0.0, 0.0, 0.0, 0.0, 0.0, 0.0],
        [1103, 1.0, 0.20306, 0.0, 0.0, 0.0, 100.0, 1, 0.30931875, 0.0, 0.0, 0.0, 0.0, 0.0, 0.0, 0.0, 0.0, 0.0, 0.0, 0.0, 0.0],
        [1104, 1.0, 0.20306, 0.0, 0.0, 0.0, 100.0, 1, 0.23911875, 0.0, 0.0, 0.0, 0.0, 0.0, 0.0, 0.0, 0.0, 0.0, 0.0, 0.0, 0.0],
        [1106, 1.0, 0.20306, 0.0, 0.0, 0.0, 100.0, 1, 0.30931875, 0.0, 0.0, 0.0, 0.0, 0.0, 0.0, 0.0, 0.0, 0.0, 0.0, 0.0, 0.0],
        [1107, 1.0, 0.20306, 0.0, 0.0, 0.0, 100.0, 1, 0.23911875, 0.0, 0.0, 0.0, 0.0, 0.0, 0.0, 0.0, 0.0, 0.0, 0.0, 0.0, 0.0],
        [1109, 1.0, 0.20306, 0.0, 0.0, 0.0, 100.0, 1, 0.30931875, 0.0, 0.0, 0.0, 0.0, 0.0, 0.0, 0.0, 0.0, 0.0, 0.0, 0.0, 0.0],
        [1110, 1.0, 0.20306, 0.0, 0.0, 0.0, 100.0, 1, 0.23985, 0.0, 0.0, 0.0, 0.0, 0.0, 0.0, 0.0, 0.0, 0.0, 0.0, 0.0, 0.0],
        [1111, 1.0, 0.20306, 0.0, 0.0, 0.0, 100.0, 1, 0.23985, 0.0, 0.0, 0.0, 0.0, 0.0, 0.0, 0.0, 0.0, 0.0, 0.0, 0.0, 0.0],
        [1113, 1.0, 0.20306, 0.0, 0.0, 0.0, 100.0, 1, 0.06069375, 0.0, 0.0, 0.0, 0.0, 0.0, 0.0, 0.0, 0.0, 0.0, 0.0, 0.0, 0.0],
        [1114, 1.0, 0.20306, 0.0, 0.0, 0.0, 100.0, 1, 0.30346875, 0.0, 0.0, 0.0, 0.0, 0.0, 0.0, 0.0, 0.0, 0.0, 0.0, 0.0, 0.0],
        [1115, 1.0, 0.20306, 0.0, 0.0, 0.0, 100.0, 1, 0.25959375, 0.0, 0.0, 0.0, 0.0, 0.0, 0.0, 0.0, 0.0, 0.0, 0.0, 0.0, 0.0],
        [1117, 1.0, 0.20306, 0.0, 0.0, 0.0, 100.0, 1, 0.25959375, 0.0, 0.0, 0.0, 0.0, 0.0, 0.0, 0.0, 0.0, 0.0, 0.0, 0.0, 0.0],
        [1120, 1.0, 0.20306, 0.0, 0.0, 0.0, 100.0, 1, 0.25959375, 0.0, 0.0, 0.0, 0.0, 0.0, 0.0, 0.0, 0.0, 0.0, 0.0, 0.0, 0.0],
        [1122, 1.0, 0.20306, 0.0, 0.0, 0.0, 100.0, 1, 0.38902500, 0.0, 0.0, 0.0, 0.0, 0.0, 0.0, 0.0, 0.0, 0.0, 0.0, 0.0, 0.0],
        [1123, 1.0, 0.20306, 0.0, 0.0, 0.0, 100.0, 1, 0.38902500, 0.0, 0.0, 0.0, 0.0, 0.0, 0.0, 0.0, 0.0, 0.0, 0.0, 0.0, 0.0],
        [1124, 1.0, 0.20306, 0.0, 0.0, 0.0, 100.0, 1, 0.38975625, 0.0, 0.0, 0.0, 0.0, 0.0, 0.0, 0.0, 0.0, 0.0, 0.0, 0.0, 0.0],
        [1125, 1.0, 0.20306, 0.0, 0.0, 0.0, 100.0, 1, 0.38975626, 0.0, 0.0, 0.0, 0.0, 0.0, 0.0, 0.0, 0.0, 0.0, 0.0, 0.0, 0.0],
        [1126, 1.0, 0.20306, 0.0, 0.0, 0.0, 100.0, 1, 0.25959375, 0.0, 0.0, 0.0, 0.0, 0.0, 0.0, 0.0, 0.0, 0.0, 0.0, 0.0, 0.0],
        [1128, 1.0, 0.20306, 0.0, 0.0, 0.0, 100.0, 1, 0.25959375, 0.0, 0.0, 0.0, 0.0, 0.0, 0.0, 0.0, 0.0, 0.0, 0.0, 0.0, 0.0],
        [1131, 1.0, 0.20306, 0.0, 0.0, 0.0, 100.0, 1, 0.25959375, 0.0, 0.0, 0.0, 0.0, 0.0, 0.0, 0.0, 0.0, 0.0, 0.0, 0.0, 0.0],
        [1133, 1.0, 0.20306, 0.0, 0.0, 0.0, 100.0, 1, 0.38902500, 0.0, 0.0, 0.0, 0.0, 0.0, 0.0, 0.0, 0.0, 0.0, 0.0, 0.0, 0.0],
        [1134, 1.0, 0.20306, 0.0, 0.0, 0.0, 100.0, 1, 0.38902500, 0.0, 0.0, 0.0, 0.0, 0.0, 0.0, 0.0, 0.0, 0.0, 0.0, 0.0, 0.0],
        [1135, 1.0, 0.20306, 0.0, 0.0, 0.0, 100.0, 1, 0.38975625, 0.0, 0.0, 0.0, 0.0, 0.0, 0.0, 0.0, 0.0, 0.0, 0.0, 0.0, 0.0],
        [1136, 1.0, 0.20306, 0.0, 0.0, 0.0, 100.0, 1, 0.38975625, 0.0, 0.0, 0.0, 0.0, 0.0, 0.0, 0.0, 0.0, 0.0, 0.0, 0.0, 0.0],
        [1137, 1.0, 0.20306, 0.0, 0.0, 0.0, 100.0, 1, 0.2647125, 0.0, 0.0, 0.0, 0.0, 0.0, 0.0, 0.0, 0.0, 0.0, 0.0, 0.0, 0.0],
        [1139, 1.0, 0.20306, 0.0, 0.0, 0.0, 100.0, 1, 0.26544375, 0.0, 0.0, 0.0, 0.0, 0.0, 0.0, 0.0, 0.0, 0.0, 0.0, 0.0, 0.0],
        [1142, 1.0, 0.20306, 0.0, 0.0, 0.0, 100.0, 1, 0.26544375, 0.0, 0.0, 0.0, 0.0, 0.0, 0.0, 0.0, 0.0, 0.0, 0.0, 0.0, 0.0],
        [1144, 1.0, 0.20306, 0.0, 0.0, 0.0, 100.0, 1, 0.26544375, 0.0, 0.0, 0.0, 0.0, 0.0, 0.0, 0.0, 0.0, 0.0, 0.0, 0.0, 0.0],
        [1146, 1.0, 0.20306, 0.0, 0.0, 0.0, 100.0, 1, 0.39633750, 0.0, 0.0, 0.0, 0.0, 0.0, 0.0, 0.0, 0.0, 0.0, 0.0, 0.0, 0.0],
        [1147, 1.0, 0.20306, 0.0, 0.0, 0.0, 100.0, 1, 0.39853125, 0.0, 0.0, 0.0, 0.0, 0.0, 0.0, 0.0, 0.0, 0.0, 0.0, 0.0, 0.0],
        [1148, 1.0, 0.20306, 0.0, 0.0, 0.0, 100.0, 1, 0.39853125, 0.0, 0.0, 0.0, 0.0, 0.0, 0.0, 0.0, 0.0, 0.0, 0.0, 0.0, 0.0],
        [1149, 1.0, 0.20306, 0.0, 0.0, 0.0, 100.0, 1, 0.39853125, 0.0, 0.0, 0.0, 0.0, 0.0, 0.0, 0.0, 0.0, 0.0, 0.0, 0.0, 0.0],
        [1150, 1.0, 0.20306, 0.0, 0.0, 0.0, 100.0, 1, 0.39853125, 0.0, 0.0, 0.0, 0.0, 0.0, 0.0, 0.0, 0.0, 0.0, 0.0, 0.0, 0.0],
        [1151, 1.0, 0.20306, 0.0, 0.0, 0.0, 100.0, 1, 0.20840625, 0.0, 0.0, 0.0, 0.0, 0.0, 0.0, 0.0, 0.0, 0.0, 0.0, 0.0, 0.0],
        [1153, 1.0, 0.20306, 0.0, 0.0, 0.0, 100.0, 1, 0.20986875, 0.0, 0.0, 0.0, 0.0, 0.0, 0.0, 0.0, 0.0, 0.0, 0.0, 0.0, 0.0],
        [1154, 1.0, 0.20306, 0.0, 0.0, 0.0, 100.0, 1, 0.20986875, 0.0, 0.0, 0.0, 0.0, 0.0, 0.0, 0.0, 0.0, 0.0, 0.0, 0.0, 0.0],
        [1156, 1.0, 0.20306, 0.0, 0.0, 0.0, 100.0, 1, 0.20986875, 0.0, 0.0, 0.0, 0.0, 0.0, 0.0, 0.0, 0.0, 0.0, 0.0, 0.0, 0.0],
        [1157, 1.0, 0.20306, 0.0, 0.0, 0.0, 100.0, 1, 0.20986875, 0.0, 0.0, 0.0, 0.0, 0.0, 0.0, 0.0, 0.0, 0.0, 0.0, 0.0, 0.0],
        [1158, 1.0, 0.20306, 0.0, 0.0, 0.0, 100.0, 1, 0.20986875, 0.0, 0.0, 0.0, 0.0, 0.0, 0.0, 0.0, 0.0, 0.0, 0.0, 0.0, 0.0],
        [1160, 1.0, 0.20306, 0.0, 0.0, 0.0, 100.0, 1, 0.20986875, 0.0, 0.0, 0.0, 0.0, 0.0, 0.0, 0.0, 0.0, 0.0, 0.0, 0.0, 0.0],
        [1161, 1.0, 0.20306, 0.0, 0.0, 0.0, 100.0, 1, 0.20986875, 0.0, 0.0, 0.0, 0.0, 0.0, 0.0, 0.0, 0.0, 0.0, 0.0, 0.0, 0.0],
        [1163, 1.0, 0.20306, 0.0, 0.0, 0.0, 100.0, 1, 0.20986875, 0.0, 0.0, 0.0, 0.0, 0.0, 0.0, 0.0, 0.0, 0.0, 0.0, 0.0, 0.0],
        [1164, 1.0, 0.20306, 0.0, 0.0, 0.0, 100.0, 1, 0.20986875, 0.0, 0.0, 0.0, 0.0, 0.0, 0.0, 0.0, 0.0, 0.0, 0.0, 0.0, 0.0],
        [1165, 1.0, 0.20306, 0.0, 0.0, 0.0, 100.0, 1, 0.20986875, 0.0, 0.0, 0.0, 0.0, 0.0, 0.0, 0.0, 0.0, 0.0, 0.0, 0.0, 0.0],
        [1167, 1.0, 0.20306, 0.0, 0.0, 0.0, 100.0, 1, 0.3436875, 0.0, 0.0, 0.0, 0.0, 0.0, 0.0, 0.0, 0.0, 0.0, 0.0, 0.0, 0.0],
        [1168, 1.0, 0.20306, 0.0, 0.0, 0.0, 100.0, 1, 0.13528125, 0.0, 0.0, 0.0, 0.0, 0.0, 0.0, 0.0, 0.0, 0.0, 0.0, 0.0, 0.0],
        [1169, 1.0, 0.20306, 0.0, 0.0, 0.0, 100.0, 1, 0.34588125, 0.0, 0.0, 0.0, 0.0, 0.0, 0.0, 0.0, 0.0, 0.0, 0.0, 0.0, 0.0],
        [1170, 1.0, 0.20306, 0.0, 0.0, 0.0, 100.0, 1, 0.13674375, 0.0, 0.0, 0.0, 0.0, 0.0, 0.0, 0.0, 0.0, 0.0, 0.0, 0.0, 0.0],
        [1171, 1.0, 0.20306, 0.0, 0.0, 0.0, 100.0, 1, 0.34588125, 0.0, 0.0, 0.0, 0.0, 0.0, 0.0, 0.0, 0.0, 0.0, 0.0, 0.0, 0.0],
        [1172, 1.0, 0.20306, 0.0, 0.0, 0.0, 100.0, 1, 0.13674375, 0.0, 0.0, 0.0, 0.0, 0.0, 0.0, 0.0, 0.0, 0.0, 0.0, 0.0, 0.0],
        [1173, 1.0, 0.20306, 0.0, 0.0, 0.0, 100.0, 1, 0.34588125, 0.0, 0.0, 0.0, 0.0, 0.0, 0.0, 0.0, 0.0, 0.0, 0.0, 0.0, 0.0],
        [1174, 1.0, 0.20306, 0.0, 0.0, 0.0, 100.0, 1, 0.13674375, 0.0, 0.0, 0.0, 0.0, 0.0, 0.0, 0.0, 0.0, 0.0, 0.0, 0.0, 0.0],
        [1175, 1.0, 0.20306, 0.0, 0.0, 0.0, 100.0, 1, 0.34588125, 0.0, 0.0, 0.0, 0.0, 0.0, 0.0, 0.0, 0.0, 0.0, 0.0, 0.0, 0.0],
        [1102, 1.0, 0.20306, 0.0, 0.0, 0.0, 100.0, 1, 3.0, 0.0, 0.0, 0.0, 0.0, 0.0, 0.0, 0.0, 0.0, 0.0, 0.0, 0.0, 0.0],
        [1105, 1.0, 0.20306, 0.0, 0.0, 0.0, 100.0, 1, 3.0, 0.0, 0.0, 0.0, 0.0, 0.0, 0.0, 0.0, 0.0, 0.0, 0.0, 0.0, 0.0],
        [1108, 1.0, 0.20306, 0.0, 0.0, 0.0, 100.0, 1, 3.0, 0.0, 0.0, 0.0, 0.0, 0.0, 0.0, 0.0, 0.0, 0.0, 0.0, 0.0, 0.0],
        [1116, 1.0, 0.20306, 0.0, 0.0, 0.0, 100.0, 1, 3.0, 0.0, 0.0, 0.0, 0.0, 0.0, 0.0, 0.0, 0.0, 0.0, 0.0, 0.0, 0.0],
        [1127, 1.0, 0.20306, 0.0, 0.0, 0.0, 100.0, 1, 3.0, 0.0, 0.0, 0.0, 0.0, 0.0, 0.0, 0.0, 0.0, 0.0, 0.0, 0.0, 0.0],
        [1152, 1.0, 0.20306, 0.0, 0.0, 0.0, 100.0, 1, 3.0, 0.0, 0.0, 0.0, 0.0, 0.0, 0.0, 0.0, 0.0, 0.0, 0.0, 0.0, 0.0]
    ])
    ## Branch data
    ppc["branch"] = array([
        [1000.0, 1100.0, 0.0, 0.004667, 0.0, 25.0, 0.0, 0.0, 0.0, 0.0, 1.0, -360.0, 360.0],
        [1100.0, 1101.0, 0.002245, 0.001164, 0.0, 6.82, 0.0, 0.0, 0.0, 0.0, 1.0, -360.0, 360.0],
        [1101.0, 1102.0, 0.002245, 0.001164, 0.0, 6.82, 0.0, 0.0, 0.0, 0.0, 1.0, -360.0, 360.0],
        [1102.0, 1103.0, 0.000688, 0.000187, 0.0, 4.84, 0.0, 0.0, 0.0, 0.0, 1.0, -360.0, 360.0],
        [1100.0, 1104.0, 0.002245, 0.001164, 0.0, 6.82, 0.0, 0.0, 0.0, 0.0, 1.0, -360.0, 360.0],
        [1104.0, 1105.0, 0.002245, 0.001164, 0.0, 6.82, 0.0, 0.0, 0.0, 0.0, 1.0, -360.0, 360.0],
        [1105.0, 1106.0, 0.000688, 0.000187, 0.0, 4.84, 0.0, 0.0, 0.0, 0.0, 1.0, -360.0, 360.0],
        [1100.0, 1107.0, 0.002245, 0.001164, 0.0, 6.82, 0.0, 0.0, 0.0, 0.0, 1.0, -360.0, 360.0],
        [1107.0, 1108.0, 0.002245, 0.001164, 0.0, 6.82, 0.0, 0.0, 0.0, 0.0, 1.0, -360.0, 360.0],
        [1108.0, 1109.0, 0.000688, 0.000187, 0.0, 4.84, 0.0, 0.0, 0.0, 0.0, 1.0, -360.0, 360.0],
        [1100.0, 1110.0, 0.002931, 0.001519, 0.0, 6.82, 0.0, 0.0, 0.0, 0.0, 1.0, -360.0, 360.0],
        [1110.0, 1111.0, 0.002931, 0.001519, 0.0, 6.82, 0.0, 0.0, 0.0, 0.0, 1.0, -360.0, 360.0],
        [1111.0, 1112.0, 0.002931, 0.001519, 0.0, 6.82, 0.0, 0.0, 0.0, 0.0, 1.0, -360.0, 360.0],
        [1111.0, 1113.0, 0.000731, 0.000199, 0.0, 4.84, 0.0, 0.0, 0.0, 0.0, 1.0, -360.0, 360.0],
        [1112.0, 1114.0, 0.000731, 0.000199, 0.0, 4.84, 0.0, 0.0, 0.0, 0.0, 1.0, -360.0, 360.0],
        [1100.0, 1115.0, 0.000821, 0.000632, 0.0, 8.86, 0.0, 0.0, 0.0, 0.0, 1.0, -360.0, 360.0],
        [1115.0, 1116.0, 0.000821, 0.000632, 0.0, 8.86, 0.0, 0.0, 0.0, 0.0, 1.0, -360.0, 360.0],
        [1116.0, 1117.0, 0.000821, 0.000632, 0.0, 8.86, 0.0, 0.0, 0.0, 0.0, 1.0, -360.0, 360.0],
        [1117.0, 1118.0, 0.000821, 0.000632, 0.0, 8.86, 0.0, 0.0, 0.0, 0.0, 1.0, -360.0, 360.0],
        [1118.0, 1119.0, 0.000821, 0.000632, 0.0, 8.86, 0.0, 0.0, 0.0, 0.0, 1.0, -360.0, 360.0],
        [1119.0, 1120.0, 0.000821, 0.000632, 0.0, 8.86, 0.0, 0.0, 0.0, 0.0, 1.0, -360.0, 360.0],
        [1120.0, 1121.0, 0.000821, 0.000632, 0.0, 8.86, 0.0, 0.0, 0.0, 0.0, 1.0, -360.0, 360.0],
        [1116.0, 1122.0, 0.000597, 0.000161, 0.0, 4.84, 0.0, 0.0, 0.0, 0.0, 1.0, -360.0, 360.0],
        [1118.0, 1123.0, 0.000597, 0.000161, 0.0, 4.84, 0.0, 0.0, 0.0, 0.0, 1.0, -360.0, 360.0],
        [1119.0, 1124.0, 0.000597, 0.000161, 0.0, 4.84, 0.0, 0.0, 0.0, 0.0, 1.0, -360.0, 360.0],
        [1121.0, 1125.0, 0.000597, 0.000161, 0.0, 4.84, 0.0, 0.0, 0.0, 0.0, 1.0, -360.0, 360.0],
        [1100.0, 1126.0, 0.000821, 0.000632, 0.0, 8.86, 0.0, 0.0, 0.0, 0.0, 1.0, -360.0, 360.0],
        [1126.0, 1127.0, 0.000821, 0.000632, 0.0, 8.86, 0.0, 0.0, 0.0, 0.0, 1.0, -360.0, 360.0],
        [1127.0, 1128.0, 0.000821, 0.000632, 0.0, 8.86, 0.0, 0.0, 0.0, 0.0, 1.0, -360.0, 360.0],
        [1128.0, 1129.0, 0.000821, 0.000632, 0.0, 8.86, 0.0, 0.0, 0.0, 0.0, 1.0, -360.0, 360.0],
        [1129.0, 1130.0, 0.000821, 0.000632, 0.0, 8.86, 0.0, 0.0, 0.0, 0.0, 1.0, -360.0, 360.0],
        [1130.0, 1131.0, 0.000821, 0.000632, 0.0, 8.86, 0.0, 0.0, 0.0, 0.0, 1.0, -360.0, 360.0],
        [1131.0, 1132.0, 0.000821, 0.000632, 0.0, 8.86, 0.0, 0.0, 0.0, 0.0, 1.0, -360.0, 360.0],
        [1127.0, 1133.0, 0.000597, 0.000161, 0.0, 4.84, 0.0, 0.0, 0.0, 0.0, 1.0, -360.0, 360.0],
        [1129.0, 1134.0, 0.000597, 0.000161, 0.0, 4.84, 0.0, 0.0, 0.0, 0.0, 1.0, -360.0, 360.0],
        [1130.0, 1135.0, 0.000597, 0.000161, 0.0, 4.84, 0.0, 0.0, 0.0, 0.0, 1.0, -360.0, 360.0],
        [1132.0, 1136.0, 0.000597, 0.000161, 0.0, 4.84, 0.0, 0.0, 0.0, 0.0, 1.0, -360.0, 360.0],
        [1100.0, 1137.0, 0.001011, 0.000777, 0.0, 8.86, 0.0, 0.0, 0.0, 0.0, 1.0, -360.0, 360.0],
        [1137.0, 1138.0, 0.001011, 0.000777, 0.0, 8.86, 0.0, 0.0, 0.0, 0.0, 1.0, -360.0, 360.0],
        [1138.0, 1139.0, 0.001011, 0.000777, 0.0, 8.86, 0.0, 0.0, 0.0, 0.0, 1.0, -360.0, 360.0],
        [1139.0, 1140.0, 0.001011, 0.000777, 0.0, 8.86, 0.0, 0.0, 0.0, 0.0, 1.0, -360.0, 360.0],
        [1140.0, 1141.0, 0.001011, 0.000777, 0.0, 8.86, 0.0, 0.0, 0.0, 0.0, 1.0, -360.0, 360.0],
        [1141.0, 1142.0, 0.001011, 0.000777, 0.0, 8.86, 0.0, 0.0, 0.0, 0.0, 1.0, -360.0, 360.0],
        [1142.0, 1143.0, 0.001011, 0.000777, 0.0, 8.86, 0.0, 0.0, 0.0, 0.0, 1.0, -360.0, 360.0],
        [1143.0, 1144.0, 0.001011, 0.000777, 0.0, 8.86, 0.0, 0.0, 0.0, 0.0, 1.0, -360.0, 360.0],
        [1144.0, 1145.0, 0.001011, 0.000777, 0.0, 8.86, 0.0, 0.0, 0.0, 0.0, 1.0, -360.0, 360.0],
        [1138.0, 1146.0, 0.000629, 0.000171, 0.0, 4.84, 0.0, 0.0, 0.0, 0.0, 1.0, -360.0, 360.0],
        [1140.0, 1147.0, 0.000629, 0.000171, 0.0, 4.84, 0.0, 0.0, 0.0, 0.0, 1.0, -360.0, 360.0],
        [1141.0, 1148.0, 0.000629, 0.000171, 0.0, 4.84, 0.0, 0.0, 0.0, 0.0, 1.0, -360.0, 360.0],
        [1143.0, 1149.0, 0.000629, 0.000171, 0.0, 4.84, 0.0, 0.0, 0.0, 0.0, 1.0, -360.0, 360.0],
        [1145.0, 1150.0, 0.000629, 0.000171, 0.0, 4.84, 0.0, 0.0, 0.0, 0.0, 1.0, -360.0, 360.0],
        [1100.0, 1151.0, 0.000733, 0.000564, 0.0, 8.86, 0.0, 0.0, 0.0, 0.0, 1.0, -360.0, 360.0],
        [1151.0, 1152.0, 0.000733, 0.000564, 0.0, 8.86, 0.0, 0.0, 0.0, 0.0, 1.0, -360.0, 360.0],
        [1152.0, 1153.0, 0.000733, 0.000564, 0.0, 8.86, 0.0, 0.0, 0.0, 0.0, 1.0, -360.0, 360.0],
        [1153.0, 1154.0, 0.000733, 0.000564, 0.0, 8.86, 0.0, 0.0, 0.0, 0.0, 1.0, -360.0, 360.0],
        [1154.0, 1155.0, 0.000733, 0.000564, 0.0, 8.86, 0.0, 0.0, 0.0, 0.0, 1.0, -360.0, 360.0],
        [1155.0, 1156.0, 0.000733, 0.000564, 0.0, 8.86, 0.0, 0.0, 0.0, 0.0, 1.0, -360.0, 360.0],
        [1156.0, 1157.0, 0.000733, 0.000564, 0.0, 8.86, 0.0, 0.0, 0.0, 0.0, 1.0, -360.0, 360.0],
        [1157.0, 1158.0, 0.000733, 0.000564, 0.0, 8.86, 0.0, 0.0, 0.0, 0.0, 1.0, -360.0, 360.0],
        [1158.0, 1159.0, 0.000733, 0.000564, 0.0, 8.86, 0.0, 0.0, 0.0, 0.0, 1.0, -360.0, 360.0],
        [1159.0, 1160.0, 0.000733, 0.000564, 0.0, 8.86, 0.0, 0.0, 0.0, 0.0, 1.0, -360.0, 360.0],
        [1160.0, 1161.0, 0.000733, 0.000564, 0.0, 8.86, 0.0, 0.0, 0.0, 0.0, 1.0, -360.0, 360.0],
        [1161.0, 1162.0, 0.000733, 0.000564, 0.0, 8.86, 0.0, 0.0, 0.0, 0.0, 1.0, -360.0, 360.0],
        [1162.0, 1163.0, 0.000733, 0.000564, 0.0, 8.86, 0.0, 0.0, 0.0, 0.0, 1.0, -360.0, 360.0],
        [1163.0, 1164.0, 0.000733, 0.000564, 0.0, 8.86, 0.0, 0.0, 0.0, 0.0, 1.0, -360.0, 360.0],
        [1164.0, 1165.0, 0.000733, 0.000564, 0.0, 8.86, 0.0, 0.0, 0.0, 0.0, 1.0, -360.0, 360.0],
        [1165.0, 1166.0, 0.000733, 0.000564, 0.0, 8.86, 0.0, 0.0, 0.0, 0.0, 1.0, -360.0, 360.0],
        [1152.0, 1167.0, 0.000803, 0.000219, 0.0, 4.84, 0.0, 0.0, 0.0, 0.0, 1.0, -360.0, 360.0],
        [1154.0, 1168.0, 0.000803, 0.000219, 0.0, 4.84, 0.0, 0.0, 0.0, 0.0, 1.0, -360.0, 360.0],
        [1155.0, 1169.0, 0.000803, 0.000219, 0.0, 4.84, 0.0, 0.0, 0.0, 0.0, 1.0, -360.0, 360.0],
        [1157.0, 1170.0, 0.000803, 0.000219, 0.0, 4.84, 0.0, 0.0, 0.0, 0.0, 1.0, -360.0, 360.0],
        [1159.0, 1171.0, 0.000803, 0.000219, 0.0, 4.84, 0.0, 0.0, 0.0, 0.0, 1.0, -360.0, 360.0],
        [1161.0, 1172.0, 0.000803, 0.000219, 0.0, 4.84, 0.0, 0.0, 0.0, 0.0, 1.0, -360.0, 360.0],
        [1162.0, 1173.0, 0.000803, 0.000219, 0.0, 4.84, 0.0, 0.0, 0.0, 0.0, 1.0, -360.0, 360.0],
        [1164.0, 1174.0, 0.000803, 0.000219, 0.0, 4.84, 0.0, 0.0, 0.0, 0.0, 1.0, -360.0, 360.0],
        [1166.0, 1175.0, 0.000803, 0.000219, 0.0, 4.84, 0.0, 0.0, 0.0, 0.0, 1.0, -360.0, 360.0]
    ])

    ## Flexibility services (optional)
    # Type, device, price, signal
    ppc["flex"] = [
        [1, 1, 1.962, [0.040429796068875819, 0.092495993873683693, 0.12440043914195485, 0.1291887817080723, 0.10581728579673247, 0.059380337632020032, -0.0, -0.059380337632020032, -0.10581728579673247, -0.1291887817080723, -0.12440043914195485, -0.092495993873683693, -0.040429796068875819]],
        [1, 2, 2.5380000000000003, [-0.052299093997353198, -0.091487216495107493, -0.12466440597688096, -0.14965084026342834, -0.16480484974714207, -0.16913077908490634, -0.16234440417987633, -0.14489160639710211, -0.11791907707153455, -0.083198977093610543, -0.043012501621198101, 0.0, 0.043012501621198101, 0.083198977093610543, 0.11791907707153455, 0.14489160639710211, 0.16234440417987633, 0.16913077908490634, 0.16480484974714207, 0.14965084026342834, 0.12466440597688096, 0.091487216495107493, 0.052299093997353198]],
        [1, 3, 1.962, [0.040429796068875874, 0.080984983248551343, 0.11152960751905516, 0.12828804443087119, 0.1291887817080723, 0.11412047911427937, 0.0849457312318318, 0.045270831935485534, -0.0, -0.045270831935485534, -0.0849457312318318, -0.11412047911427937, -0.1291887817080723, -0.12828804443087119, -0.11152960751905516, -0.080984983248551343, -0.040429796068875874]],
        [1, 4, 2.5380000000000003, [-0.052299093997353198, -0.13037803526681632, -0.16786686826996255, -0.15309433421491414, -0.090659511124553963, 0.0, 0.090659511124553963, 0.15309433421491414, 0.16786686826996255, 0.13037803526681632, 0.052299093997353198]],
        [1, 5, 1.962, [0.040429796068875874, 0.076890154428163493, 0.10582440903714908, 0.12440043914195484, 0.13079999985964036, 0.12439669424412256, 0.10581728579673248, 0.076880350076775739, 0.040418270268599864, -0.0, -0.040418270268599864, -0.076880350076775739, -0.10581728579673248, -0.12439669424412256, -0.13079999985964036, -0.12440043914195484, -0.10582440903714908, -0.076890154428163493, -0.040429796068875874]],
        [1, 6, 2.5380000000000003, [-0.052299093997353198, -0.10197571501295254, -0.14047315273618963, -0.16357108949104041, -0.1687373923218784, -0.15540570044091753, -0.12503751306015767, -0.08096197117109076, -0.028010897344663985, 0.028010897344663985, 0.08096197117109076, 0.12503751306015767, 0.15540570044091753, 0.1687373923218784, 0.16357108949104041, 0.14047315273618963, 0.10197571501295254, 0.052299093997353198]],
        [1, 7, 1.9679999999999997, [0.040553434588964175, 0.081232643747782385, 0.11187067665519905, 0.12868036260955884, 0.12958385443500828, 0.11446947140514872, 0.085205504110216601, 0.045409274846603218, -0.0, -0.045409274846603218, -0.085205504110216601, -0.11446947140514872, -0.12958385443500828, -0.12868036260955884, -0.11187067665519905, -0.081232643747782385, -0.040553434588964175]],
        [1, 8, 1.9679999999999997, [-0.040553434588964175, -0.0863286226274112, -0.11821050591669394, -0.13106817066444221, -0.12283236742283352, -0.094828525937036653, -0.051563446988394469, 0.0, 0.051563446988394469, 0.094828525937036653, 0.12283236742283352, 0.13106817066444221, 0.11821050591669394, 0.0863286226274112, 0.040553434588964175]],
        [1, 9, 0.498, [0.010261997167329336, 0.02347757642665366, 0.031575646632361627, 0.032791036335688077, 0.026858821777152278, 0.015072073466231385, -0.0, -0.015072073466231385, -0.026858821777152278, -0.032791036335688077, -0.031575646632361627, -0.02347757642665366, -0.010261997167329336]],
        [1, 10, 2.4900000000000002, [-0.051309985836646678, -0.11738788213326831, -0.15787823316180816, -0.16395518167844039, -0.1342941088857614, -0.075360367331156933, 0.0, 0.075360367331156933, 0.1342941088857614, 0.16395518167844039, 0.15787823316180816, 0.11738788213326831, 0.051309985836646678]],
        [1, 11, 2.1300000000000003, [0.04389167463134843, 0.10941891848633521, 0.14088117786249812, 0.12848342469573173, 0.076085405317297058, -0.0, -0.076085405317297058, -0.12848342469573173, -0.14088117786249812, -0.10941891848633521, -0.04389167463134843]],
        [1, 12, 2.1300000000000003, [-0.04389167463134843, -0.10462379225010104, -0.13831139872396084, -0.13624648577743759, -0.09896281881890015, -0.036097962353487771, 0.036097962353487771, 0.09896281881890015, 0.13624648577743759, 0.13831139872396084, 0.10462379225010104, 0.04389167463134843]],
        [1, 13, 2.1300000000000003, [0.04389167463134843, 0.14088117786249812, 0.076085405317297058, -0.076085405317297058, -0.14088117786249812, -0.04389167463134843]],
        [1, 14, 3.1919999999999997, [-0.065775692686978485, -0.12825314512267313, -0.17667072637270184, -0.20572061373341247, -0.21221818608803616, -0.19545114098006647, -0.1572575814373614, -0.10182451220572171, -0.035228835431114033, 0.035228835431114033, 0.10182451220572171, 0.1572575814373614, 0.19545114098006647, 0.21221818608803616, 0.20572061373341247, 0.17667072637270184, 0.12825314512267313, 0.065775692686978485]],
        [1, 15, 3.1919999999999997, [0.065775692686978485, 0.15678833092127814, 0.20727229329900609, 0.20417783220731486, 0.1483048439764926, 0.054096101329733776, -0.054096101329733776, -0.1483048439764926, -0.20417783220731486, -0.20727229329900609, -0.15678833092127814, -0.065775692686978485]],
        [1, 16, 3.198, [-0.065899331207066786, -0.13591066626697368, -0.18683486468602778, -0.21152019098791972, -0.20649986652245345, -0.17247893984605017, -0.114235270518646, -0.039948532037926844, 0.039948532037926844, 0.114235270518646, 0.17247893984605017, 0.20649986652245345, 0.21152019098791972, 0.18683486468602778, 0.13591066626697368, 0.065899331207066786]],
        [1, 17, 3.198, [0.065899331207066786, 0.15708304582902491, 0.20766190287287642, 0.20456162512499781, 0.14858361248020782, 0.054197785730729517, -0.054197785730729517, -0.14858361248020782, -0.20456162512499781, -0.20766190287287642, -0.15708304582902491, -0.065899331207066786]],
        [1, 18, 2.1300000000000003, [-0.04389167463134843, -0.09343494217296032, -0.12794124878178767, -0.14185731885938108, -0.13294356839971314, -0.10263453264526835, -0.055807999027073299, 0.0, 0.055807999027073299, 0.10263453264526835, 0.13294356839971314, 0.14185731885938108, 0.12794124878178767, 0.09343494217296032, 0.04389167463134843]],
        [1, 19, 2.1300000000000003, [0.04389167463134843, 0.085582455861934165, 0.11789118019231044, 0.13727597344992751, 0.1416117595136332, 0.1304232237742925, 0.10493691994410395, 0.067946807956825589, 0.023507963492566699, -0.023507963492566699, -0.067946807956825589, -0.10493691994410395, -0.1304232237742925, -0.1416117595136332, -0.13727597344992751, -0.11789118019231044, -0.085582455861934165, -0.04389167463134843]],
        [1, 20, 2.1300000000000003, [-0.04389167463134843, -0.09052211355492619, -0.12443973163891159, -0.14088117786249812, -0.13753743455060222, -0.11487809314324168, -0.076085405317297058, -0.026607371244773043, 0.026607371244773043, 0.076085405317297058, 0.11487809314324168, 0.13753743455060222, 0.14088117786249812, 0.12443973163891159, 0.09052211355492619, 0.04389167463134843]],
        [1, 21, 3.1919999999999997, [0.065775692686978485, 0.14493116941271433, 0.19709459758396378, 0.2125510360209083, 0.18842187042367023, 0.12920092784145545, 0.045917544228006368, -0.045917544228006368, -0.12920092784145545, -0.18842187042367023, -0.2125510360209083, -0.19709459758396378, -0.14493116941271433, -0.065775692686978485]],
        [1, 22, 3.1919999999999997, [-0.065775692686978485, -0.19173167423073531, -0.19922810813703487, -0.083633395725078843, 0.083633395725078843, 0.19922810813703487, 0.19173167423073531, 0.065775692686978485]],
        [1, 23, 3.198, [0.065899331207066786, 0.14520359642288863, 0.19746507615085093, 0.21295056804350398, 0.18877604687183502, 0.12944378672837548, 0.046003855401367283, -0.046003855401367283, -0.12944378672837548, -0.18877604687183502, -0.21295056804350398, -0.19746507615085093, -0.14520359642288863, -0.065899331207066786]],
        [1, 24, 3.198, [-0.065899331207066786, -0.13591066626697368, -0.18683486468602778, -0.21152019098791972, -0.20649986652245345, -0.17247893984605017, -0.114235270518646, -0.039948532037926844, 0.039948532037926844, 0.114235270518646, 0.17247893984605017, 0.20649986652245345, 0.21152019098791972, 0.18683486468602778, 0.13591066626697368, 0.065899331207066786]],
        [1, 25, 2.1719999999999997, [0.044757144271966559, 0.10668679660432837, 0.141038665741053, 0.138933036201218, 0.10091419834490661, 0.036809753160457946, -0.036809753160457946, -0.10091419834490661, -0.138933036201218, -0.141038665741053, -0.10668679660432837, -0.044757144271966559]],
        [1, 26, 2.1779999999999999, [-0.044880782792054867, -0.11747480269261504, -0.14519999984418791, -0.11746689524224431, -0.044867988096335631, 0.044867988096335631, 0.11746689524224431, 0.14519999984418791, 0.11747480269261504, 0.044880782792054867]],
        [1, 27, 2.1779999999999999, [0.044880782792054867, 0.095540518334604488, 0.13082443185292653, 0.14505410350973333, 0.13593947980027005, 0.10494742352178144, 0.057065644075570715, -0.0, -0.057065644075570715, -0.10494742352178144, -0.13593947980027005, -0.14505410350973333, -0.13082443185292653, -0.095540518334604488, -0.044880782792054867]],
        [1, 28, 2.1779999999999999, [-0.044880782792054867, -0.078510306353957476, -0.10698151151207513, -0.12842377072251651, -0.14142827531492333, -0.14514059765442316, -0.13931682911890095, -0.12433960548971172, -0.10119296684862183, -0.071397703746999108, -0.036911437561453687, 0.0, 0.036911437561453687, 0.071397703746999108, 0.10119296684862183, 0.12433960548971172, 0.13931682911890095, 0.14514059765442316, 0.14142827531492333, 0.12842377072251651, 0.10698151151207513, 0.078510306353957476, 0.044880782792054867]],
        [1, 29, 3.2520000000000002, [0.067012077887861454, 0.15331140268971427, 0.20619277680409642, 0.21412941799931251, 0.17539134220742814, 0.098422455646956758, -0.0, -0.098422455646956758, -0.17539134220742814, -0.21412941799931251, -0.20619277680409642, -0.15331140268971427, -0.067012077887861454]],
        [1, 30, 3.27, [-0.067382993448126455, -0.1158169084205809, -0.15728541254266479, -0.18929452481885997, -0.20991916694238164, -0.21791894052933836, -0.2128127266265222, -0.19490762096121528, -0.1652804647216253, -0.12571308163583403, -0.07858511629309009, -0.02673091857918183, 0.02673091857918183, 0.07858511629309009, 0.12571308163583403, 0.1652804647216253, 0.19490762096121528, 0.2128127266265222, 0.21791894052933836, 0.20991916694238164, 0.18929452481885997, 0.15728541254266479, 0.1158169084205809, 0.067382993448126455]],
        [1, 31, 3.27, [0.067382993448126455, 0.13497497208091891, 0.18588267919842527, 0.2138134073847853, 0.21531463618012051, 0.19020079852379895, 0.14157621871971968, 0.075451386559142547, -0.0, -0.075451386559142547, -0.14157621871971968, -0.19020079852379895, -0.21531463618012051, -0.2138134073847853, -0.18588267919842527, -0.13497497208091891, -0.067382993448126455]],
        [1, 32, 3.27, [-0.067382993448126455, -0.14847272054497992, -0.20191081895349675, -0.2177449523146523, -0.19302616424981256, -0.13235809337141582, -0.047039589481698257, 0.047039589481698257, 0.13235809337141582, 0.19302616424981256, 0.2177449523146523, 0.20191081895349675, 0.14847272054497992, 0.067382993448126455]],
        [1, 33, 3.27, [0.067382993448126455, 0.14847272054497992, 0.20191081895349675, 0.2177449523146523, 0.19302616424981256, 0.13235809337141582, 0.047039589481698257, -0.047039589481698257, -0.13235809337141582, -0.19302616424981256, -0.2177449523146523, -0.20191081895349675, -0.14847272054497992, -0.067382993448126455]],
        [1, 34, 1.71, [-0.035236978225167047, -0.077641697899668405, -0.10558639156283775, -0.11386662643977231, -0.1009402877269662, -0.069214782772208272, -0.024598684407860557, 0.024598684407860557, 0.069214782772208272, 0.1009402877269662, 0.11386662643977231, 0.10558639156283775, 0.077641697899668405, 0.035236978225167047]],
        [1, 35, 1.7220000000000002, [0.035484255265343663, 0.075537544798984821, 0.10343419267710721, 0.11468464933138696, 0.10747832149497935, 0.082974960194907091, 0.045118016114845172, -0.0, -0.045118016114845172, -0.082974960194907091, -0.10747832149497935, -0.11468464933138696, -0.10343419267710721, -0.075537544798984821, -0.035484255265343663]],
        [1, 36, 1.7220000000000002, [-0.035484255265343663, -0.097886842073299202, -0.11338587263063227, -0.074554816096439547, 0.0, 0.074554816096439547, 0.11338587263063227, 0.097886842073299202, 0.035484255265343663]],
        [1, 37, 1.7220000000000002, [0.035484255265343663, 0.084583178523321118, 0.11181794770077962, 0.11014856737499883, 0.080006560566265761, 0.029183423085777437, -0.029183423085777437, -0.080006560566265761, -0.11014856737499883, -0.11181794770077962, -0.084583178523321118, -0.035484255265343663]],
        [1, 38, 1.7220000000000002, [-0.035484255265343663, -0.092879527197742479, -0.11479999987680975, -0.092873275301719349, -0.035474139348893464, 0.035474139348893464, 0.092873275301719349, 0.11479999987680975, 0.092879527197742479, 0.035484255265343663]],
        [1, 39, 1.7220000000000002, [0.035484255265343663, 0.078186551920016958, 0.10632734869661205, 0.11466569048496369, 0.1016486406232958, 0.069700500546048344, 0.024771306754582386, -0.024771306754582386, -0.069700500546048344, -0.1016486406232958, -0.11466569048496369, -0.10632734869661205, -0.078186551920016958, -0.035484255265343663]],
        [1, 40, 1.7220000000000002, [-0.035484255265343663, -0.075537544798984821, -0.10343419267710721, -0.11468464933138696, -0.10747832149497935, -0.082974960194907091, -0.045118016114845172, 0.0, 0.045118016114845172, 0.082974960194907091, 0.10747832149497935, 0.11468464933138696, 0.10343419267710721, 0.075537544798984821, 0.035484255265343663]],
        [1, 41, 1.7220000000000002, [0.035484255265343663, 0.071078563279309601, 0.097886842073299202, 0.11259531728336401, 0.11338587263063227, 0.10016078747950516, 0.074554816096439547, 0.039733115490777828, -0.0, -0.039733115490777828, -0.074554816096439547, -0.10016078747950516, -0.11338587263063227, -0.11259531728336401, -0.097886842073299202, -0.071078563279309601, -0.035484255265343663]],
        [1, 42, 1.7220000000000002, [-0.035484255265343663, -0.078186551920016958, -0.10632734869661205, -0.11466569048496369, -0.1016486406232958, -0.069700500546048344, -0.024771306754582386, 0.024771306754582386, 0.069700500546048344, 0.1016486406232958, 0.11466569048496369, 0.10632734869661205, 0.078186551920016958, 0.035484255265343663]],
        [1, 43, 1.7220000000000002, [0.035484255265343663, 0.078186551920016958, 0.10632734869661205, 0.11466569048496369, 0.1016486406232958, 0.069700500546048344, 0.024771306754582386, -0.024771306754582386, -0.069700500546048344, -0.1016486406232958, -0.11466569048496369, -0.10632734869661205, -0.078186551920016958, -0.035484255265343663]],
        [1, 44, 1.7220000000000002, [-0.035484255265343607, -0.10918326004202154, -0.092873275301719335, 0.0, 0.092873275301719335, 0.10918326004202154, 0.035484255265343607]],
        [1, 45, 2.8199999999999998, [0.058110104441503552, 0.10798527095255178, 0.14836601729104276, 0.17570193543153786, 0.18758956154661824, 0.18298369645129106, 0.16228930295286695, 0.12732590018906809, 0.081167585521262575, 0.02787274978412101, -0.02787274978412101, -0.081167585521262575, -0.12732590018906809, -0.16228930295286695, -0.18298369645129106, -0.18758956154661824, -0.17570193543153786, -0.14836601729104276, -0.10798527095255178, -0.058110104441503552]],
        [1, 46, 1.1100000000000001, [-0.022873126216336474, -0.070379453337191589, -0.059866048539435807, 0.0, 0.059866048539435807, 0.070379453337191589, 0.022873126216336474]],
        [1, 47, 2.8379999999999996, [0.058481020001768462, 0.1005163260237335, 0.13650642226179896, 0.16428680777857019, 0.18218672653898441, 0.18912964930344411, 0.18469801778778897, 0.16915835727459599, 0.14344524736390599, 0.10910511488761375, 0.068203229369966256, 0.023199494473308265, -0.023199494473308265, -0.068203229369966256, -0.10910511488761375, -0.14344524736390599, -0.16915835727459599, -0.18469801778778897, -0.18912964930344411, -0.18218672653898441, -0.16428680777857019, -0.13650642226179896, -0.1005163260237335, -0.058481020001768462]],
        [1, 48, 1.1219999999999999, [-0.023120403256513111, -0.055111687748644757, -0.072856990313748371, -0.07176927560670654, -0.052129710194744577, -0.019014982986203414, 0.019014982986203414, 0.052129710194744577, 0.07176927560670654, 0.072856990313748371, 0.055111687748644757, 0.023120403256513111]],
        [1, 49, 2.8379999999999996, [0.058481020001768462, 0.15307322775098323, 0.18919999979697211, 0.15306292410353045, 0.05846434812552824, -0.05846434812552824, -0.15306292410353045, -0.18919999979697211, -0.15307322775098323, -0.058481020001768462]],
        [1, 50, 1.1219999999999999, [-0.023120403256513111, -0.046312513356205197, -0.063779928458909216, -0.073363499414596051, -0.073878599937032163, -0.065261558392569544, -0.048577528257958857, -0.025888824379008541, 0.0, 0.025888824379008541, 0.048577528257958857, 0.065261558392569544, 0.073878599937032163, 0.073363499414596051, 0.063779928458909216, 0.046312513356205197, 0.023120403256513111]],
        [1, 51, 2.8379999999999996, [0.058481020001768462, 0.10867453863948295, 0.1493130344226877, 0.17682343714705831, 0.18878694172670302, 0.1841516774924695, 0.16332519212065119, 0.1281386187009132, 0.081685676492674886, 0.028050660952955823, -0.028050660952955823, -0.081685676492674886, -0.1281386187009132, -0.16332519212065119, -0.1841516774924695, -0.18878694172670302, -0.17682343714705831, -0.1493130344226877, -0.10867453863948295, -0.058481020001768462]],
        [1, 52, 1.1219999999999999, [-0.023120403256513111, -0.043970822257084319, -0.060517322599225924, -0.071140312292188229, -0.074799999919733157, -0.071138170714528798, -0.06051324906418646, -0.043965215487330463, -0.023113812049627442, 0.0, 0.023113812049627442, 0.043965215487330463, 0.06051324906418646, 0.071138170714528798, 0.074799999919733157, 0.071140312292188229, 0.060517322599225924, 0.043970822257084319, 0.023120403256513111]],
        [1, 53, 2.8379999999999996, [0.058481020001768462, 0.11714341613628373, 0.1613257013960645, 0.18556649851927234, 0.1868693998407284, 0.16507335358120531, 0.12287257147601358, 0.06548349695866866, -0.0, -0.06548349695866866, -0.12287257147601358, -0.16507335358120531, -0.1868693998407284, -0.18556649851927234, -0.1613257013960645, -0.11714341613628373, -0.058481020001768462]],
    ]

    gens = (ppc["gen"][:,1]>0.0).nonzero()[0]
    loads = (ppc["gen"][:,1]<0.0).nonzero()[0]

    curt_price = array([44.6173227472565,37.5933152653731,35.486858835712,30.813577481462,29.7982908484623,34.0830165585145,41.1455693600725,47.9863431328419,52.7878848863657,54.935686142715,56.2104514377951,56.5735353275524,54.2256495551522,50.721523721694,47.4582530137651,45.7213834384578,46.8899775610899,51.958446932519,58.7142978138175,59.8841691269956,53.82313410273,51.7470364162305,50.6788170666746,49.2207084749555])
    for gen in gens:
        ppc["flex"] += [[2, gen, lambda real_time, price_time: curt_price[ceil((price_time-1)/4)]]]

    load_scales = 5.0*array([ 0.08574127,  0.09005958,  0.06647813,  0.07986159,  0.08308783,
                          0.08787622,  0.07174462,  0.08097174,  0.01663934,  0.0886404 ,
                          0.0720049 ,  0.07812732,  0.09033842,  0.11497359,  0.11836596,
                          0.1124688 ,  0.09211438,  0.06886836,  0.07549911,  0.07140892,
                          0.1156302 ,  0.08076522,  0.1254722 ,  0.11732797,  0.08033894,
                          0.07663264,  0.0924619 ,  0.07903798,  0.11679701,  0.09926579,
                          0.12387246,  0.11651491,  0.11394597,  0.05577231,  0.05979462,
                          0.06289555,  0.06043775,  0.05203883,  0.0985941 ,  0.05647349,
                          0.06467326,  0.06094325,  0.05668626,  0.06007911,  0.10994622,
                          0.03962584,  0.10450524,  0.03879539,  0.10120343,  0.03403733,
                          0.10803962,  0.04875453,  0.08863282])
    pv_scales = 1.e-6*array([159.4125, 206.2125, 159.4125, 206.2125, 159.4125, 206.2125, 159.9, 159.9, 40.4625, 202.3125, 173.0625, 173.0625, 173.0625, 259.35, 259.35, 259.8375, 259.8375, 173.0625, 173.0625, 173.0625, 259.35, 259.35, 259.8375, 259.8375, 176.475, 176.9625, 176.9625, 176.9625, 264.225, 265.6875, 265.6875, 265.6875, 265.6875, 138.9375, 139.9125, 139.9125, 139.9125, 139.9125, 139.9125, 139.9125, 139.9125, 139.9125, 139.9125, 139.9125, 229.125, 90.1875, 230.5875, 91.1625, 230.5875, 91.1625, 230.5875, 91.1625, 230.5875])

    # Entries = Dev id, callable
    ppc["power"] = []
    for load, scale in zip(loads,load_scales):
        ppc["power"] += [[load, LoadSampler(scale)]]
    for gen, scale in zip(gens[:-6],pv_scales):
        ppc["power"] += [[gen, lambda ir, ws: scale*ir]]
    for gen in gens[-6:]:
        ppc["power"] += [[gen, lambda ir, ws: (10.0/6.0)*min(0.015*(ws-3.5)**3,3.0)*(ws>=3.5)*(ws<=25)]]

    return ppc
